28

 C         -0.0210700000     1.5318600000    -1.3639300000
 H          0.0600700000     2.4565600000    -0.8093900000
 C         -1.2746700000     0.9741000000    -1.6074000000
 H         -2.1651000000     1.4654500000    -1.2405600000
 C          1.1289900000     0.8966700000    -1.8299800000
 H          2.1000300000     1.3326700000    -1.6400400000
 C         -1.3783000000    -0.2256900000    -2.3084100000
 H         -2.3509700000    -0.6616100000    -2.4926600000
 C          1.0247800000    -0.3035100000    -2.5312400000
 H          1.9165800000    -0.7940800000    -2.8993900000
 C         -0.2289400000    -0.8664000000    -2.7687900000
 H         -0.3103400000    -1.7955700000    -3.3172700000
 H         -2.9417600000     0.8953800000     2.2239000000
 C         -2.0220600000     0.4258500000     1.9013500000
 C         -0.8149400000     1.0740400000     2.1066900000
 N          1.5646400000    -1.2137800000     0.7555300000
 H          3.5028700000    -0.3485300000     0.9695200000
 C         -2.0792800000    -0.8417600000     1.2876400000
 H          1.8075700000    -2.0366900000     0.2333000000
 C         -0.9284600000    -1.4853100000     0.8606900000
 C          0.3704200000     0.4492800000     1.6847400000
 H         -0.7851500000     2.0443800000     2.5856000000
 C          0.2861200000    -0.8269400000     1.0618700000
 H         -3.0389900000    -1.3203800000     1.1468400000
 C          1.7508600000     0.8038900000     1.7194000000
 H          2.1870100000     1.6998200000     2.1275900000
 C          2.4451300000    -0.2310700000     1.1353300000
 H         -0.9729200000    -2.4554800000     0.3834000000
