20

 N         -0.2589500000    -1.7235700000     1.4144700000
 C         -1.2471800000    -1.1718200000    -0.6961300000
 H         -2.0634300000    -0.7223100000    -1.2472700000
 C         -1.2471800000    -1.1718200000     0.6961300000
 H         -2.0634300000    -0.7223100000     1.2472700000
 N         -0.2589500000    -1.7235700000    -1.4144700000
 C          0.7315300000    -2.2652200000     0.6967200000
 H          1.5488000000    -2.7128200000     1.2475600000
 C          0.7315300000    -2.2652200000    -0.6967200000
 H          1.5488000000    -2.7128200000    -1.2475600000
 N          1.4701700000     0.9907500000     0.0000000000
 C         -0.3380000000     2.0800600000     1.1300400000
 H         -0.8103700000     2.3643000000     2.0618600000
 C          0.8540200000     1.3593400000     1.1306300000
 H          1.3208500000     1.0670600000     2.0623900000
 N         -0.9523000000     2.4528800000     0.0000000000
 C          0.8540200000     1.3593400000    -1.1306300000
 H          1.3208500000     1.0670600000    -2.0623900000
 C         -0.3380000000     2.0800600000    -1.1300400000
 H         -0.8103700000     2.3643000000    -2.0618600000
