24

 N          2.0143506552    -1.2396512324    -0.1033403935
 C          1.6478811096    -0.4747598068     1.0069007324
 H          2.1419064519    -2.2383603356     0.0479711333
 C          2.0318104321    -0.7138411093    -1.3759518788
 O          0.9077110811     2.6241638593    -0.6201526283
 N          1.3425097823     0.8613234764     0.7635474452
 H          1.7302169385     0.9901764598    -2.6329740446
 C          1.7203726693     0.5909114044    -1.6220859346
 O          1.5710131604    -0.9735203828     2.1371991792
 C          1.3116504412     1.4590249708    -0.5129316330
 H          1.0471072065     1.4237728266     1.5647393917
 H          2.3047082418    -1.4102076331    -2.1687913688
 N         -2.0143506552     1.2396512324    -0.1033403935
 C         -1.6478811096     0.4747598068     1.0069007324
 H         -2.1419064519     2.2383603356     0.0479711333
 C         -2.0318104321     0.7138411093    -1.3759518788
 O         -0.9077110811    -2.6241638593    -0.6201526283
 N         -1.3425097823    -0.8613234764     0.7635474452
 H         -1.7302169385    -0.9901764598    -2.6329740446
 C         -1.7203726693    -0.5909114044    -1.6220859346
 O         -1.5710131604     0.9735203828     2.1371991792
 C         -1.3116504412    -1.4590249708    -0.5129316330
 H         -1.0471072065    -1.4237728266     1.5647393917
 H         -2.3047082418     1.4102076331    -2.1687913688
